* SPICE — fpu_ieee754 | 7180 cells

.subckt AND2 A B Y
B_AND internal 0 V=0.5*(tanh(20*(V(A)-0.5))+1)*(tanh(20*(V(B)-0.5))+1)
R_out internal Y 1
R_pull Y 0 100k
C_load Y 0 10f
.ends

.subckt ANDN2 A B Y
B_ANDN internal 0 V=0.5*(tanh(20*(V(A)-0.5))+1)*(1-0.5*(tanh(20*(V(B)-0.5))+1))
R_out internal Y 1
R_pull Y 0 100k
C_load Y 0 10f
.ends

.subckt CELL_DFFE_PN0 A B Y
B_CELL_DFFE_PN0 internal 0 V=0.5*(tanh(20*(V(A)-0.5))+1)*(tanh(20*(V(B)-0.5))+1)
R_out internal Y 1
R_pull Y 0 100k
C_load Y 0 10f
.ends

.subckt CELL_DFF_PN0 A B Y
B_CELL_DFF_PN0 internal 0 V=0.5*(tanh(20*(V(A)-0.5))+1)*(tanh(20*(V(B)-0.5))+1)
R_out internal Y 1
R_pull Y 0 100k
C_load Y 0 10f
.ends

.subckt CELL_DFF_PN1 A B Y
B_CELL_DFF_PN1 internal 0 V=0.5*(tanh(20*(V(A)-0.5))+1)*(tanh(20*(V(B)-0.5))+1)
R_out internal Y 1
R_pull Y 0 100k
C_load Y 0 10f
.ends

.subckt INV A Y
B_INV internal 0 V=1-0.5*(tanh(20*(V(A)-0.5))+1)
R_out internal Y 1
R_pull Y 0 100k
C_load Y 0 10f
.ends

.subckt MUX2 A B S Y
B_MUX internal 0 V=V(A)*(1-0.5*(tanh(20*(V(S)-0.5))+1)) + V(B)*0.5*(tanh(20*(V(S)-0.5))+1)
R_out internal Y 1
R_pull Y 0 100k
C_load Y 0 10f
.ends

.subckt NAND2 A B Y
B_NAND internal 0 V=1-0.5*(tanh(20*(V(A)-0.5))+1)*(tanh(20*(V(B)-0.5))+1)
R_out internal Y 1
R_pull Y 0 100k
C_load Y 0 10f
.ends

.subckt NOR2 A B Y
B_NOR internal 0 V=1-(0.5*(tanh(20*(V(A)-0.5))+tanh(20*(V(B)-0.5))+2) - 0.5*(tanh(20*(V(A)-0.5))+1)*(tanh(20*(V(B)-0.5))+1))
R_out internal Y 1
R_pull Y 0 100k
C_load Y 0 10f
.ends

.subckt OR2 A B Y
B_OR internal 0 V=0.5*(tanh(20*(V(A)-0.5))+tanh(20*(V(B)-0.5))+2) - 0.5*(tanh(20*(V(A)-0.5))+1)*(tanh(20*(V(B)-0.5))+1)
R_out internal Y 1
R_pull Y 0 100k
C_load Y 0 10f
.ends

.subckt ORN2 A B Y
B_ORN internal 0 V=0.5*(tanh(20*(V(A)-0.5))+tanh(20*(V(B)-0.5))+2) - V(A)*0.5*(tanh(20*(V(B)-0.5))+1)
R_out internal Y 1
R_pull Y 0 100k
C_load Y 0 10f
.ends

.subckt XNOR2 A B Y
B_XNOR internal 0 V=1-0.5*(tanh(20*(V(A)-0.5))-tanh(20*(V(B)-0.5)))**2
R_out internal Y 1
R_pull Y 0 100k
C_load Y 0 10f
.ends

.subckt XOR2 A B Y
B_XOR internal 0 V=0.5*(tanh(20*(V(A)-0.5))-tanh(20*(V(B)-0.5)))**2
R_out internal Y 1
R_pull Y 0 100k
C_load Y 0 10f
.ends

* MAIN: fpu_ieee754

X0 operand_b w109 INV
X1 operand_b operand_a w110 NAND2
X2 operand_a operand_b w111 AND2
X3 operand_a operand_b w112 NAND2
X4 operand_a operand_b w113 NAND2
X5 w112 w113 w114 OR2
X6 operand_a operand_b w115 AND2
X7 w110 w111 w116 XNOR2
X8 w115 w116 w117 NAND2
X9 w114 w117 w118 NAND2
X10 operand_a operand_b w119 AND2
X11 operand_a operand_b w120 AND2
X12 operand_a operand_b w121 AND2
X13 w111 w121 w122 NAND2
X14 w112 w120 w123 XNOR2
X15 w119 w123 w124 NAND2
X16 w119 w123 w125 XOR2
X17 w118 w125 w126 NAND2
X18 operand_a operand_b w127 AND2
X19 operand_a operand_b w128 AND2
X20 operand_a operand_b w129 AND2
X21 operand_a operand_b w130 AND2
X22 operand_a operand_b w131 AND2
X23 w128 w129 w132 NAND2
X24 w128 w129 w133 XOR2
X25 w127 w133 w134 NAND2
X26 w127 w133 w135 XOR2
X27 w118 w125 w136 XOR2
X28 w135 w136 w137 NAND2
X29 w126 w137 w138 NAND2
X30 operand_a operand_b w139 AND2
X31 operand_a operand_b w140 AND2
X32 operand_a operand_b w141 AND2
X33 w130 w140 w142 NAND2
X34 w130 w140 w143 XOR2
X35 w139 w143 w144 NAND2
X36 w139 w143 w145 XOR2
X37 w122 w124 w146 NAND2
X38 operand_a operand_b w147 AND2
X39 operand_a operand_b w148 AND2
X40 operand_a operand_b w149 AND2
X41 w121 w148 w150 NAND2
X42 w121 w148 w151 XOR2
X43 w147 w151 w152 NAND2
X44 w147 w151 w153 XOR2
X45 w146 w153 w154 NAND2
X46 w146 w153 w155 XOR2
X47 w145 w155 w156 NAND2
X48 w145 w155 w157 XOR2
X49 w138 w157 w158 AND2
X50 w138 w157 w159 XOR2
X51 operand_a operand_b w160 NAND2
X52 operand_b operand_a w161 AND2
X53 operand_b operand_a w162 AND2
X54 operand_b operand_a w163 AND2
X55 w162 w163 w164 AND2
X56 w160 w161 w165 XNOR2
X57 w159 w165 w166 AND2
X58 w154 w156 w167 NAND2
X59 operand_a operand_b w168 AND2
X60 operand_a operand_b w169 AND2
X61 operand_a operand_b w170 AND2
X62 w141 w169 w171 NAND2
X63 w141 w169 w172 XOR2
X64 w168 w172 w173 NAND2
X65 w168 w172 w174 XOR2
X66 w150 w152 w175 NAND2
X67 operand_a operand_b w176 AND2
X68 operand_a operand_b w177 AND2
X69 operand_a operand_b w178 AND2
X70 w149 w177 w179 NAND2
X71 w149 w177 w180 XOR2
X72 w176 w180 w181 NAND2
X73 w176 w180 w182 XOR2
X74 w175 w182 w183 NAND2
X75 w175 w182 w184 XOR2
X76 w174 w184 w185 NAND2
X77 w174 w184 w186 XOR2
X78 w167 w186 w187 AND2
X79 w167 w186 w188 XOR2
X80 operand_a operand_b w189 AND2
X81 operand_b operand_a w190 AND2
X82 operand_b operand_a w191 NAND2
X83 w162 w190 w192 NAND2
X84 w162 w190 w193 XOR2
X85 w189 w193 w194 NAND2
X86 w189 w193 w195 XOR2
X87 w164 w195 w196 AND2
X88 w164 w195 w197 XOR2
X89 w188 w197 w198 AND2
X90 w188 w197 w199 XOR2
X91 w166 w199 w200 NAND2
X92 operand_a operand_b w201 AND2
X93 operand_a operand_b w202 AND2
X94 w131 w201 w203 NAND2
X95 operand_a operand_b w204 AND2
X96 w131 w201 w205 XOR2
X97 w204 w205 w206 NAND2
X98 w203 w206 w207 NAND2
X99 operand_a operand_b w208 AND2
X100 operand_a operand_b w209 AND2
X101 operand_a operand_b w210 AND2
X102 operand_a operand_b w211 AND2
X103 operand_a operand_b w212 AND2
X104 w209 w210 w213 NAND2
X105 w209 w210 w214 XOR2
X106 w208 w214 w215 NAND2
X107 w208 w214 w216 XOR2
X108 w207 w216 w217 NAND2
X109 operand_a operand_b w218 AND2
X110 operand_a operand_b w219 AND2
X111 w211 w218 w220 NAND2
X112 operand_a operand_b w221 AND2
X113 w211 w218 w222 XOR2
X114 w221 w222 w223 NAND2
X115 w220 w223 w224 NAND2
X116 w207 w216 w225 XOR2
X117 w224 w225 w226 NAND2
X118 w217 w226 w227 NAND2
X119 w213 w215 w228 NAND2
X120 w132 w134 w229 NAND2
X121 operand_a operand_b w230 AND2
X122 operand_a operand_b w231 AND2
X123 operand_a operand_b w232 AND2
X124 w212 w231 w233 NAND2
X125 w212 w231 w234 XOR2
X126 w230 w234 w235 NAND2
X127 w230 w234 w236 XOR2
X128 w229 w236 w237 NAND2
X129 w229 w236 w238 XOR2
X130 w228 w238 w239 NAND2
X131 w228 w238 w240 XOR2
X132 w227 w240 w241 NAND2
X133 operand_a operand_b w242 AND2
X134 operand_a operand_b w243 AND2
X135 operand_a operand_b w244 AND2
X136 operand_a operand_b w245 AND2
X137 operand_a operand_b w246 AND2
X138 w243 w244 w247 NAND2
X139 w243 w244 w248 XOR2
X140 w242 w248 w249 NAND2
X141 w242 w248 w250 XOR2
X142 operand_a operand_b w251 AND2
X143 operand_a operand_b w252 AND2
X144 operand_a operand_b w253 AND2
X145 operand_a operand_b w254 AND2
X146 w251 w252 w255 NAND2
X147 operand_a operand_b w256 AND2
X148 w251 w252 w257 XOR2
X149 w256 w257 w258 NAND2
X150 w255 w258 w259 NAND2
X151 operand_a operand_b w260 AND2
X152 operand_a operand_b w261 AND2
X153 operand_a operand_b w262 NAND2
X154 w253 w261 w263 NAND2
X155 w253 w261 w264 XOR2
X156 w260 w264 w265 NAND2
X157 w260 w264 w266 XOR2
X158 w259 w266 w267 NAND2
X159 w259 w266 w268 XOR2
X160 w250 w268 w269 NAND2
X161 w250 w268 w270 XOR2
X162 w227 w240 w271 XOR2
X163 w270 w271 w272 NAND2
X164 w241 w272 w273 NAND2
X165 operand_a operand_b w274 AND2
X166 operand_a operand_b w275 AND2
X167 operand_a operand_b w276 AND2
X168 w245 w275 w277 NAND2
X169 w245 w275 w278 XOR2
X170 w274 w278 w279 NAND2
X171 w274 w278 w280 XOR2
X172 w263 w265 w281 NAND2
X173 operand_a operand_b w282 AND2
X174 operand_a operand_b w283 AND2
X175 operand_a operand_b w284 NAND2
X176 w261 w284 w285 ANDN2
X177 w262 w283 w286 XNOR2
X178 w282 w286 w287 AND2
X179 w282 w286 w288 XOR2
X180 w281 w288 w289 NAND2
X181 w281 w288 w290 XOR2
X182 w280 w290 w291 NAND2
X183 w280 w290 w292 XOR2
X184 w237 w239 w293 NAND2
X185 w233 w235 w294 NAND2
X186 w142 w144 w295 NAND2
X187 operand_a operand_b w296 AND2
X188 operand_a operand_b w297 AND2
X189 operand_a operand_b w298 AND2
X190 w232 w297 w299 NAND2
X191 w232 w297 w300 XOR2
X192 w296 w300 w301 NAND2
X193 w296 w300 w302 XOR2
X194 w295 w302 w303 NAND2
X195 w295 w302 w304 XOR2
X196 w294 w304 w305 NAND2
X197 w294 w304 w306 XOR2
X198 w293 w306 w307 NAND2
X199 w293 w306 w308 XOR2
X200 w292 w308 w309 NAND2
X201 w292 w308 w310 XOR2
X202 w158 w310 w311 NAND2
X203 w158 w310 w312 XOR2
X204 w273 w312 w313 NAND2
X205 w273 w312 w314 XOR2
X206 w166 w199 w315 XOR2
X207 w314 w315 w316 NAND2
X208 w200 w316 w317 NAND2
X209 w307 w309 w318 NAND2
X210 operand_a operand_b w319 AND2
X211 operand_a operand_b w320 AND2
X212 operand_a operand_b w321 AND2
X213 w276 w320 w322 NAND2
X214 w276 w320 w323 XOR2
X215 w319 w323 w324 NAND2
X216 w319 w323 w325 XOR2
X217 w285 w287 w326 OR2
X218 operand_a operand_b w327 AND2
X219 operand_a operand_b w328 AND2
X220 operand_a operand_b w329 AND2
X221 w284 w328 w330 ORN2
X222 w284 w328 w331 XNOR2
X223 w327 w331 w332 NAND2
X224 w327 w331 w333 XOR2
X225 w326 w333 w334 NAND2
X226 w326 w333 w335 XOR2
X227 w325 w335 w336 NAND2
X228 w325 w335 w337 XOR2
X229 w303 w305 w338 NAND2
X230 w299 w301 w339 NAND2
X231 w171 w173 w340 NAND2
X232 operand_a operand_b w341 AND2
X233 operand_a operand_b w342 AND2
X234 operand_a operand_b w343 AND2
X235 w298 w342 w344 NAND2
X236 w298 w342 w345 XOR2
X237 w341 w345 w346 NAND2
X238 w341 w345 w347 XOR2
X239 w340 w347 w348 NAND2
X240 w340 w347 w349 XOR2
X241 w339 w349 w350 NAND2
X242 w339 w349 w351 XOR2
X243 w338 w351 w352 NAND2
X244 w338 w351 w353 XOR2
X245 w337 w353 w354 NAND2
X246 w337 w353 w355 XOR2
X247 w187 w355 w356 NAND2
X248 w187 w355 w357 XOR2
X249 w318 w357 w358 NAND2
X250 w318 w357 w359 XOR2
X251 w183 w185 w360 NAND2
X252 operand_a operand_b w361 AND2
X253 operand_a operand_b w362 AND2
X254 operand_a operand_b w363 AND2
X255 w170 w362 w364 NAND2
X256 w170 w362 w365 XOR2
X257 w361 w365 w366 NAND2
X258 w361 w365 w367 XOR2
X259 w179 w181 w368 NAND2
X260 operand_a operand_b w369 AND2
X261 operand_a operand_b w370 AND2
X262 operand_a operand_b w371 AND2
X263 w178 w370 w372 NAND2
X264 w178 w370 w373 XOR2
X265 w369 w373 w374 NAND2
X266 w369 w373 w375 XOR2
X267 w368 w375 w376 NAND2
X268 w368 w375 w377 XOR2
X269 w367 w377 w378 NAND2
X270 w367 w377 w379 XOR2
X271 w196 w379 w380 NAND2
X272 w196 w379 w381 XOR2
X273 w360 w381 w382 NAND2
X274 w360 w381 w383 XOR2
X275 operand_b operand_a w384 AND2
X276 w192 w194 w385 NAND2
X277 operand_a operand_b w386 AND2
X278 operand_a operand_b w387 AND2
X279 operand_b operand_a w388 AND2
X280 w162 w388 w389 NAND2
X281 w191 w387 w390 XNOR2
X282 w386 w390 w391 NAND2
X283 w386 w390 w392 XOR2
X284 w385 w392 w393 AND2
X285 w385 w392 w394 XOR2
X286 w384 w394 w395 AND2
X287 w384 w394 w396 XOR2
X288 w383 w396 w397 AND2
X289 w383 w396 w398 XOR2
X290 w198 w398 w399 NAND2
X291 w198 w398 w400 XOR2
X292 w359 w400 w401 NAND2
X293 w359 w400 w402 XOR2
X294 w317 w402 w403 NAND2
X295 operand_a operand_b w404 AND2
X296 operand_a operand_b w405 AND2
X297 w254 w404 w406 NAND2
X298 operand_a operand_b w407 NAND2
X299 w254 w404 w408 XOR2
X300 w407 w408 w409 ORN2
X301 w406 w409 w410 NAND2
X302 w256 w257 w411 XOR2
X303 w410 w411 w412 NAND2
X304 operand_a operand_b w413 AND2
X305 operand_a operand_b w414 AND2
X306 operand_a operand_b w415 AND2
X307 w246 w414 w416 NAND2
X308 w246 w414 w417 XOR2
X309 w413 w417 w418 NAND2
X310 w413 w417 w419 XOR2
X311 w410 w411 w420 XOR2
X312 w419 w420 w421 NAND2
X313 w412 w421 w422 NAND2
X314 operand_a operand_b w423 AND2
X315 operand_a operand_b w424 AND2
X316 operand_a operand_b w425 AND2
X317 operand_a operand_b w426 AND2
X318 w423 w424 w427 NAND2
X319 operand_a operand_b w428 AND2
X320 w423 w424 w429 XOR2
X321 w428 w429 w430 NAND2
X322 w427 w430 w431 NAND2
X323 w416 w418 w432 NAND2
X324 operand_a operand_b w433 AND2
X325 operand_a operand_b w434 AND2
X326 operand_a operand_b w435 AND2
X327 w425 w434 w436 NAND2
X328 w425 w434 w437 XOR2
X329 w433 w437 w438 NAND2
X330 w433 w437 w439 XOR2
X331 w432 w439 w440 NAND2
X332 w432 w439 w441 XOR2
X333 w431 w441 w442 NAND2
X334 w431 w441 w443 XOR2
X335 w422 w443 w444 NAND2
X336 operand_a operand_b w445 AND2
X337 operand_a operand_b w446 AND2
X338 w415 w445 w447 NAND2
X339 operand_a operand_b w448 AND2
X340 w415 w445 w449 XOR2
X341 w448 w449 w450 NAND2
X342 w447 w450 w451 NAND2
X343 w428 w429 w452 XOR2
X344 w451 w452 w453 NAND2
X345 operand_a operand_b w454 AND2
X346 operand_a operand_b w455 AND2
X347 w426 w454 w456 NAND2
X348 operand_a operand_b w457 AND2
X349 w426 w454 w458 XOR2
X350 w457 w458 w459 NAND2
X351 w456 w459 w460 NAND2
X352 w451 w452 w461 XOR2
X353 w460 w461 w462 NAND2
X354 w453 w462 w463 NAND2
X355 w422 w443 w464 XOR2
X356 w463 w464 w465 NAND2
X357 w444 w465 w466 NAND2
X358 w440 w442 w467 NAND2
X359 w267 w269 w468 NAND2
X360 w436 w438 w469 NAND2
X361 w247 w249 w470 NAND2
X362 operand_a operand_b w471 AND2
X363 operand_a operand_b w472 AND2
X364 operand_a operand_b w473 AND2
X365 w435 w472 w474 NAND2
X366 w435 w472 w475 XOR2
X367 w471 w475 w476 NAND2
X368 w471 w475 w477 XOR2
X369 w470 w477 w478 NAND2
X370 w470 w477 w479 XOR2
X371 w469 w479 w480 NAND2
X372 w469 w479 w481 XOR2
X373 w468 w481 w482 NAND2
X374 w468 w481 w483 XOR2
X375 w467 w483 w484 NAND2
X376 w467 w483 w485 XOR2
X377 w466 w485 w486 NAND2
X378 operand_a operand_b w487 AND2
X379 operand_a operand_b w488 AND2
X380 operand_a operand_b w489 AND2
X381 operand_a operand_b w490 AND2
X382 operand_a operand_b w491 AND2
X383 w488 w489 w492 NAND2
X384 operand_a operand_b w493 AND2
X385 w488 w489 w494 XOR2
X386 w493 w494 w495 NAND2
X387 w492 w495 w496 NAND2
X388 operand_a operand_b w497 AND2
X389 operand_a operand_b w498 AND2
X390 operand_a operand_b w499 AND2
X391 w490 w498 w500 NAND2
X392 w490 w498 w501 XOR2
X393 w497 w501 w502 NAND2
X394 w497 w501 w503 XOR2
X395 w496 w503 w504 NAND2
X396 operand_a operand_b w505 AND2
X397 w496 w503 w506 XOR2
X398 w505 w506 w507 NAND2
X399 w504 w507 w508 NAND2
X400 operand_a operand_b w509 AND2
X401 w500 w502 w510 NAND2
X402 operand_a operand_b w511 AND2
X403 operand_a operand_b w512 AND2
X404 operand_a operand_b w513 AND2
X405 w499 w512 w514 NAND2
X406 w499 w512 w515 XOR2
X407 w511 w515 w516 NAND2
X408 w511 w515 w517 XOR2
X409 w510 w517 w518 NAND2
X410 w510 w517 w519 XOR2
X411 w509 w519 w520 NAND2
X412 w509 w519 w521 XOR2
X413 w508 w521 w522 NAND2
X414 w508 w521 w523 XOR2
X415 w487 w523 w524 NAND2
X416 w487 w523 w525 XOR2
X417 w466 w485 w526 XOR2
X418 w525 w526 w527 NAND2
X419 w486 w527 w528 NAND2
X420 w311 w313 w529 NAND2
X421 operand_a operand_b w530 AND2
X422 w518 w520 w531 NAND2
X423 operand_a operand_b w532 AND2
X424 w514 w516 w533 NAND2
X425 operand_a operand_b w534 AND2
X426 operand_a operand_b w535 AND2
X427 operand_a operand_b w536 AND2
X428 w513 w535 w537 NAND2
X429 w513 w535 w538 XOR2
X430 w534 w538 w539 NAND2
X431 w534 w538 w540 XOR2
X432 w533 w540 w541 NAND2
X433 w533 w540 w542 XOR2
X434 w532 w542 w543 NAND2
X435 w532 w542 w544 XOR2
X436 w531 w544 w545 NAND2
X437 w531 w544 w546 XOR2
X438 w530 w546 w547 NAND2
X439 w530 w546 w548 XOR2
X440 w482 w484 w549 NAND2
X441 w478 w480 w550 NAND2
X442 w289 w291 w551 NAND2
X443 w474 w476 w552 NAND2
X444 w277 w279 w553 NAND2
X445 operand_a operand_b w554 AND2
X446 operand_a operand_b w555 AND2
X447 operand_a operand_b w556 AND2
X448 w473 w555 w557 NAND2
X449 w473 w555 w558 XOR2
X450 w554 w558 w559 NAND2
X451 w554 w558 w560 XOR2
X452 w553 w560 w561 NAND2
X453 w553 w560 w562 XOR2
X454 w552 w562 w563 NAND2
X455 w552 w562 w564 XOR2
X456 w551 w564 w565 NAND2
X457 w551 w564 w566 XOR2
X458 w550 w566 w567 NAND2
X459 w550 w566 w568 XOR2
X460 w549 w568 w569 NAND2
X461 w549 w568 w570 XOR2
X462 w548 w570 w571 NAND2
X463 w548 w570 w572 XOR2
X464 w529 w572 w573 NAND2
X465 w529 w572 w574 XOR2
X466 w528 w574 w575 NAND2
X467 w528 w574 w576 XOR2
X468 w317 w402 w577 XOR2
X469 w576 w577 w578 NAND2
X470 w403 w578 w579 NAND2
X471 w569 w571 w580 NAND2
X472 w356 w358 w581 NAND2
X473 operand_a operand_b w582 AND2
X474 w541 w543 w583 NAND2
X475 operand_a operand_b w584 AND2
X476 w537 w539 w585 NAND2
X477 operand_a operand_b w586 AND2
X478 operand_a operand_b w587 AND2
X479 operand_a operand_b w588 AND2
X480 w536 w587 w589 NAND2
X481 w536 w587 w590 XOR2
X482 w586 w590 w591 NAND2
X483 w586 w590 w592 XOR2
X484 w585 w592 w593 NAND2
X485 w585 w592 w594 XOR2
X486 w584 w594 w595 NAND2
X487 w584 w594 w596 XOR2
X488 w583 w596 w597 NAND2
X489 w583 w596 w598 XOR2
X490 w582 w598 w599 NAND2
X491 w582 w598 w600 XOR2
X492 w565 w567 w601 NAND2
X493 w561 w563 w602 NAND2
X494 w334 w336 w603 NAND2
X495 w557 w559 w604 NAND2
X496 w322 w324 w605 NAND2
X497 operand_a operand_b w606 AND2
X498 operand_a operand_b w607 AND2
X499 operand_a operand_b w608 AND2
X500 w556 w607 w609 NAND2
X501 w556 w607 w610 XOR2
X502 w606 w610 w611 NAND2
X503 w606 w610 w612 XOR2
X504 w605 w612 w613 NAND2
X505 w605 w612 w614 XOR2
X506 w604 w614 w615 NAND2
X507 w604 w614 w616 XOR2
X508 w603 w616 w617 NAND2
X509 w603 w616 w618 XOR2
X510 w602 w618 w619 NAND2
X511 w602 w618 w620 XOR2
X512 w601 w620 w621 NAND2
X513 w601 w620 w622 XOR2
X514 w600 w622 w623 NAND2
X515 w600 w622 w624 XOR2
X516 w581 w624 w625 NAND2
X517 w581 w624 w626 XOR2
X518 w580 w626 w627 NAND2
X519 w580 w626 w628 XOR2
X520 w399 w401 w629 NAND2
X521 w352 w354 w630 NAND2
X522 w380 w382 w631 NAND2
X523 operand_a operand_b w632 AND2
X524 operand_a operand_b w633 AND2
X525 operand_a operand_b w634 AND2
X526 w321 w633 w635 NAND2
X527 w321 w633 w636 XOR2
X528 w632 w636 w637 NAND2
X529 w632 w636 w638 XOR2
X530 w330 w332 w639 NAND2
X531 operand_a operand_b w640 AND2
X532 operand_a operand_b w641 AND2
X533 operand_a operand_b w642 AND2
X534 w329 w641 w643 NAND2
X535 w329 w641 w644 XOR2
X536 w640 w644 w645 NAND2
X537 w640 w644 w646 XOR2
X538 w639 w646 w647 NAND2
X539 w639 w646 w648 XOR2
X540 w638 w648 w649 NAND2
X541 w638 w648 w650 XOR2
X542 w348 w350 w651 NAND2
X543 w344 w346 w652 NAND2
X544 w364 w366 w653 NAND2
X545 operand_a operand_b w654 AND2
X546 operand_a operand_b w655 AND2
X547 operand_a operand_b w656 AND2
X548 w343 w655 w657 NAND2
X549 w343 w655 w658 XOR2
X550 w654 w658 w659 NAND2
X551 w654 w658 w660 XOR2
X552 w653 w660 w661 NAND2
X553 w653 w660 w662 XOR2
X554 w652 w662 w663 NAND2
X555 w652 w662 w664 XOR2
X556 w651 w664 w665 NAND2
X557 w651 w664 w666 XOR2
X558 w650 w666 w667 NAND2
X559 w650 w666 w668 XOR2
X560 w631 w668 w669 NAND2
X561 w631 w668 w670 XOR2
X562 w630 w670 w671 NAND2
X563 w630 w670 w672 XOR2
X564 w376 w378 w673 NAND2
X565 operand_a operand_b w674 AND2
X566 operand_a operand_b w675 AND2
X567 operand_a operand_b w676 AND2
X568 w363 w675 w677 NAND2
X569 w363 w675 w678 XOR2
X570 w674 w678 w679 NAND2
X571 w674 w678 w680 XOR2
X572 w372 w374 w681 NAND2
X573 operand_a operand_b w682 AND2
X574 operand_a operand_b w683 AND2
X575 operand_a operand_b w684 AND2
X576 w371 w683 w685 NAND2
X577 w371 w683 w686 XOR2
X578 w682 w686 w687 NAND2
X579 w682 w686 w688 XOR2
X580 w681 w688 w689 NAND2
X581 w681 w688 w690 XOR2
X582 w680 w690 w691 NAND2
X583 w680 w690 w692 XOR2
X584 w393 w692 w693 NAND2
X585 w393 w692 w694 XOR2
X586 w673 w694 w695 NAND2
X587 w673 w694 w696 XOR2
X588 w389 w391 w697 NAND2
X589 operand_a operand_b w698 AND2
X590 operand_b operand_a w699 AND2
X591 operand_b operand_a w700 AND2
X592 w388 w699 w701 NAND2
X593 w388 w699 w702 XOR2
X594 w698 w702 w703 NAND2
X595 w698 w702 w704 XOR2
X596 w697 w704 w705 AND2
X597 w697 w704 w706 XOR2
X598 operand_b operand_a w707 NAND2
X599 operand_b operand_a w708 AND2
X600 operand_b operand_a w709 AND2
X601 w384 w709 w710 AND2
X602 w707 w708 w711 XNOR2
X603 w706 w711 w712 AND2
X604 w706 w711 w713 XOR2
X605 w395 w713 w714 NAND2
X606 w395 w713 w715 XOR2
X607 w696 w715 w716 NAND2
X608 w696 w715 w717 XOR2
X609 w397 w717 w718 NAND2
X610 w397 w717 w719 XOR2
X611 w672 w719 w720 NAND2
X612 w672 w719 w721 XOR2
X613 w629 w721 w722 NAND2
X614 w629 w721 w723 XOR2
X615 w628 w723 w724 NAND2
X616 w628 w723 w725 XOR2
X617 w579 w725 w726 NAND2
X618 w573 w575 w727 NAND2
X619 w579 w725 w728 XOR2
X620 w727 w728 w729 NAND2
X621 w726 w729 w730 NAND2
X622 w625 w627 w731 NAND2
X623 w722 w724 w732 NAND2
X624 w621 w623 w733 NAND2
X625 w669 w671 w734 NAND2
X626 operand_a operand_b w735 AND2
X627 w593 w595 w736 NAND2
X628 operand_a operand_b w737 AND2
X629 w589 w591 w738 NAND2
X630 operand_a operand_b w739 AND2
X631 operand_a operand_b w740 AND2
X632 operand_a operand_b w741 AND2
X633 w588 w740 w742 NAND2
X634 w588 w740 w743 XOR2
X635 w739 w743 w744 NAND2
X636 w739 w743 w745 XOR2
X637 w738 w745 w746 NAND2
X638 w738 w745 w747 XOR2
X639 w737 w747 w748 NAND2
X640 w737 w747 w749 XOR2
X641 w736 w749 w750 NAND2
X642 w736 w749 w751 XOR2
X643 w735 w751 w752 NAND2
X644 w735 w751 w753 XOR2
X645 w617 w619 w754 NAND2
X646 w613 w615 w755 NAND2
X647 w647 w649 w756 NAND2
X648 w609 w611 w757 NAND2
X649 w635 w637 w758 NAND2
X650 operand_a operand_b w759 AND2
X651 operand_a operand_b w760 AND2
X652 operand_a operand_b w761 AND2
X653 w608 w760 w762 NAND2
X654 w608 w760 w763 XOR2
X655 w759 w763 w764 NAND2
X656 w759 w763 w765 XOR2
X657 w758 w765 w766 NAND2
X658 w758 w765 w767 XOR2
X659 w757 w767 w768 NAND2
X660 w757 w767 w769 XOR2
X661 w756 w769 w770 NAND2
X662 w756 w769 w771 XOR2
X663 w755 w771 w772 NAND2
X664 w755 w771 w773 XOR2
X665 w754 w773 w774 NAND2
X666 w754 w773 w775 XOR2
X667 w753 w775 w776 NAND2
X668 w753 w775 w777 XOR2
X669 w734 w777 w778 NAND2
X670 w734 w777 w779 XOR2
X671 w733 w779 w780 NAND2
X672 w733 w779 w781 XOR2
X673 w718 w720 w782 NAND2
X674 w665 w667 w783 NAND2
X675 w693 w695 w784 NAND2
X676 w643 w645 w785 NAND2
X677 operand_a operand_b w786 AND2
X678 operand_a operand_b w787 AND2
X679 operand_a operand_b w788 AND2
X680 w642 w787 w789 NAND2
X681 w642 w787 w790 XOR2
X682 w786 w790 w791 NAND2
X683 w786 w790 w792 XOR2
X684 w785 w792 w793 NAND2
X685 w785 w792 w794 XOR2
X686 operand_a operand_b w795 AND2
X687 operand_a operand_b w796 AND2
X688 operand_a operand_b w797 AND2
X689 w634 w796 w798 NAND2
X690 w634 w796 w799 XOR2
X691 w795 w799 w800 NAND2
X692 w795 w799 w801 XOR2
X693 w794 w801 w802 NAND2
X694 w794 w801 w803 XOR2
X695 w661 w663 w804 NAND2
X696 w657 w659 w805 NAND2
X697 w677 w679 w806 NAND2
X698 operand_a operand_b w807 NAND2
X699 operand_a operand_b w808 AND2
X700 operand_a operand_b w809 AND2
X701 w656 w808 w810 NAND2
X702 w656 w808 w811 XOR2
X703 w807 w811 w812 ORN2
X704 w807 w811 w813 XNOR2
X705 w806 w813 w814 NAND2
X706 w806 w813 w815 XOR2
X707 w805 w815 w816 NAND2
X708 w805 w815 w817 XOR2
X709 w804 w817 w818 NAND2
X710 w804 w817 w819 XOR2
X711 w803 w819 w820 NAND2
X712 w803 w819 w821 XOR2
X713 w784 w821 w822 NAND2
X714 w784 w821 w823 XOR2
X715 w783 w823 w824 NAND2
X716 w783 w823 w825 XOR2
X717 w714 w716 w826 NAND2
X718 w689 w691 w827 NAND2
X719 operand_a operand_b w828 AND2
X720 operand_a operand_b w829 AND2
X721 operand_a operand_b w830 AND2
X722 w676 w829 w831 NAND2
X723 w676 w829 w832 XOR2
X724 w828 w832 w833 NAND2
X725 w828 w832 w834 XOR2
X726 w685 w687 w835 NAND2
X727 operand_a operand_b w836 AND2
X728 operand_a operand_b w837 AND2
X729 operand_a operand_b w838 AND2
X730 w684 w837 w839 NAND2
X731 w684 w837 w840 XOR2
X732 w836 w840 w841 NAND2
X733 w836 w840 w842 XOR2
X734 w835 w842 w843 NAND2
X735 w835 w842 w844 XOR2
X736 w834 w844 w845 NAND2
X737 w834 w844 w846 XOR2
X738 w705 w846 w847 NAND2
X739 w705 w846 w848 XOR2
X740 w827 w848 w849 NAND2
X741 w827 w848 w850 XOR2
X742 w701 w703 w851 NAND2
X743 operand_a operand_b w852 AND2
X744 operand_a operand_b w853 AND2
X745 operand_b operand_a w854 AND2
X746 w700 w853 w855 NAND2
X747 w700 w853 w856 XOR2
X748 w852 w856 w857 NAND2
X749 w852 w856 w858 XOR2
X750 w710 w858 w859 NAND2
X751 w710 w858 w860 XOR2
X752 w851 w860 w861 NAND2
X753 w851 w860 w862 XOR2
X754 operand_b operand_a w863 AND2
X755 operand_b operand_a w864 AND2
X756 operand_b operand_a w865 NAND2
X757 w709 w864 w866 NAND2
X758 w709 w864 w867 XOR2
X759 w863 w867 w868 NAND2
X760 w863 w867 w869 XOR2
X761 w862 w869 w870 AND2
X762 w862 w869 w871 XOR2
X763 w712 w871 w872 NAND2
X764 w712 w871 w873 XOR2
X765 w850 w873 w874 NAND2
X766 w850 w873 w875 XOR2
X767 w826 w875 w876 NAND2
X768 w826 w875 w877 XOR2
X769 w825 w877 w878 NAND2
X770 w825 w877 w879 XOR2
X771 w782 w879 w880 NAND2
X772 w782 w879 w881 XOR2
X773 w781 w881 w882 NAND2
X774 w781 w881 w883 XOR2
X775 w732 w883 w884 NAND2
X776 w732 w883 w885 XOR2
X777 w731 w885 w886 NAND2
X778 w731 w885 w887 XOR2
X779 w730 w887 w888 NAND2
X780 w597 w599 w889 NAND2
X781 w730 w887 w890 XOR2
X782 w889 w890 w891 NAND2
X783 w888 w891 w892 NAND2
X784 w750 w752 w893 NAND2
X785 w884 w886 w894 NAND2
X786 w778 w780 w895 NAND2
X787 w880 w882 w896 NAND2
X788 w774 w776 w897 NAND2
X789 w822 w824 w898 NAND2
X790 operand_a operand_b w899 AND2
X791 w746 w748 w900 NAND2
X792 operand_a operand_b w901 AND2
X793 w742 w744 w902 NAND2
X794 operand_a operand_b w903 AND2
X795 operand_a operand_b w904 AND2
X796 operand_a operand_b w905 NAND2
X797 w741 w904 w906 NAND2
X798 w741 w904 w907 XOR2
X799 w903 w907 w908 NAND2
X800 w903 w907 w909 XOR2
X801 w902 w909 w910 NAND2
X802 w902 w909 w911 XOR2
X803 w901 w911 w912 NAND2
X804 w901 w911 w913 XOR2
X805 w900 w913 w914 NAND2
X806 w900 w913 w915 XOR2
X807 w899 w915 w916 NAND2
X808 w899 w915 w917 XOR2
X809 w770 w772 w918 NAND2
X810 w766 w768 w919 NAND2
X811 w793 w802 w920 NAND2
X812 w762 w764 w921 NAND2
X813 w798 w800 w922 NAND2
X814 operand_a operand_b w923 AND2
X815 operand_a operand_b w924 AND2
X816 operand_a operand_b w925 NAND2
X817 w761 w924 w926 NAND2
X818 w761 w924 w927 XOR2
X819 w923 w927 w928 NAND2
X820 w923 w927 w929 XOR2
X821 w922 w929 w930 NAND2
X822 w922 w929 w931 XOR2
X823 w921 w931 w932 NAND2
X824 w921 w931 w933 XOR2
X825 w920 w933 w934 NAND2
X826 w920 w933 w935 XOR2
X827 w919 w935 w936 NAND2
X828 w919 w935 w937 XOR2
X829 w918 w937 w938 NAND2
X830 w918 w937 w939 XOR2
X831 w917 w939 w940 NAND2
X832 w917 w939 w941 XOR2
X833 w898 w941 w942 NAND2
X834 w898 w941 w943 XOR2
X835 w897 w943 w944 NAND2
X836 w897 w943 w945 XOR2
X837 w876 w878 w946 NAND2
X838 w818 w820 w947 NAND2
X839 w847 w849 w948 NAND2
X840 w814 w816 w949 NAND2
X841 w810 w812 w950 NAND2
X842 w831 w833 w951 NAND2
X843 operand_a operand_b w952 AND2
X844 operand_a operand_b w953 AND2
X845 operand_a operand_b w954 AND2
X846 w809 w953 w955 NAND2
X847 w809 w953 w956 XOR2
X848 w952 w956 w957 NAND2
X849 w952 w956 w958 XOR2
X850 w951 w958 w959 NAND2
X851 w951 w958 w960 XOR2
X852 w950 w960 w961 NAND2
X853 w950 w960 w962 XOR2
X854 w949 w962 w963 NAND2
X855 w949 w962 w964 XOR2
X856 w789 w791 w965 NAND2
X857 operand_a operand_b w966 AND2
X858 operand_a operand_b w967 AND2
X859 operand_a operand_b w968 NAND2
X860 w788 w967 w969 NAND2
X861 w788 w967 w970 XOR2
X862 w966 w970 w971 NAND2
X863 w966 w970 w972 XOR2
X864 w965 w972 w973 NAND2
X865 w965 w972 w974 XOR2
X866 operand_a operand_b w975 AND2
X867 operand_a operand_b w976 AND2
X868 operand_a operand_b w977 NAND2
X869 w797 w976 w978 NAND2
X870 w797 w976 w979 XOR2
X871 w975 w979 w980 NAND2
X872 w975 w979 w981 XOR2
X873 w974 w981 w982 NAND2
X874 w974 w981 w983 XOR2
X875 w964 w983 w984 NAND2
X876 w964 w983 w985 XOR2
X877 w948 w985 w986 NAND2
X878 w948 w985 w987 XOR2
X879 w947 w987 w988 NAND2
X880 w947 w987 w989 XOR2
X881 w872 w874 w990 NAND2
X882 w843 w845 w991 NAND2
X883 w859 w861 w992 NAND2
X884 operand_a operand_b w993 AND2
X885 operand_a operand_b w994 AND2
X886 operand_a operand_b w995 NAND2
X887 w830 w994 w996 NAND2
X888 w830 w994 w997 XOR2
X889 w993 w997 w998 NAND2
X890 w993 w997 w999 XOR2
X891 w839 w841 w1000 NAND2
X892 operand_a operand_b w1001 AND2
X893 operand_a operand_b w1002 AND2
X894 operand_a operand_b w1003 NAND2
X895 w838 w1002 w1004 NAND2
X896 w838 w1002 w1005 XOR2
X897 w1001 w1005 w1006 NAND2
X898 w1001 w1005 w1007 XOR2
X899 w1000 w1007 w1008 NAND2
X900 w1000 w1007 w1009 XOR2
X901 w999 w1009 w1010 NAND2
X902 w999 w1009 w1011 XOR2
X903 w992 w1011 w1012 NAND2
X904 w992 w1011 w1013 XOR2
X905 w991 w1013 w1014 NAND2
X906 w991 w1013 w1015 XOR2
X907 w855 w857 w1016 NAND2
X908 w866 w868 w1017 NAND2
X909 operand_a operand_b w1018 AND2
X910 operand_a operand_b w1019 AND2
X911 operand_b operand_a w1020 NAND2
X912 w854 w1019 w1021 NAND2
X913 w854 w1019 w1022 XOR2
X914 w1018 w1022 w1023 NAND2
X915 w1018 w1022 w1024 XOR2
X916 w1017 w1024 w1025 NAND2
X917 w1017 w1024 w1026 XOR2
X918 w1016 w1026 w1027 NAND2
X919 w1016 w1026 w1028 XOR2
X920 operand_b operand_a w1029 AND2
X921 operand_b operand_a w1030 AND2
X922 operand_b operand_a w1031 AND2
X923 operand_b operand_a w1032 AND2
X924 w709 w1032 w1033 NAND2
X925 w865 w1031 w1034 XNOR2
X926 w1030 w1034 w1035 NAND2
X927 w1030 w1034 w1036 XOR2
X928 w1029 w1036 w1037 AND2
X929 w1029 w1036 w1038 XOR2
X930 w1028 w1038 w1039 AND2
X931 w1028 w1038 w1040 XOR2
X932 w870 w1040 w1041 NAND2
X933 w870 w1040 w1042 XOR2
X934 w1015 w1042 w1043 NAND2
X935 w1015 w1042 w1044 XOR2
X936 w990 w1044 w1045 NAND2
X937 w990 w1044 w1046 XOR2
X938 w989 w1046 w1047 NAND2
X939 w989 w1046 w1048 XOR2
X940 w946 w1048 w1049 NAND2
X941 w946 w1048 w1050 XOR2
X942 w945 w1050 w1051 NAND2
X943 w945 w1050 w1052 XOR2
X944 w896 w1052 w1053 NAND2
X945 w896 w1052 w1054 XOR2
X946 w895 w1054 w1055 NAND2
X947 w895 w1054 w1056 XOR2
X948 w894 w1056 w1057 NAND2
X949 w894 w1056 w1058 XOR2
X950 w893 w1058 w1059 NAND2
X951 w893 w1058 w1060 XOR2
X952 w892 w1060 w1061 NAND2
X953 operand_a operand_b w1062 AND2
X954 operand_a operand_b w1063 AND2
X955 w111 w1063 w1064 AND2
X956 w115 w116 w1065 XOR2
X957 w1064 w1065 w1066 NAND2
X958 w204 w205 w1067 XOR2
X959 w1064 w1065 w1068 XOR2
X960 w1067 w1068 w1069 NAND2
X961 w1066 w1069 w1070 NAND2
X962 w135 w136 w1071 XOR2
X963 w1070 w1071 w1072 AND2
X964 w1070 w1071 w1073 XOR2
X965 w163 w1073 w1074 AND2
X966 w159 w165 w1075 XOR2
X967 w1074 w1075 w1076 NAND2
X968 operand_a operand_b w1077 AND2
X969 operand_a operand_b w1078 NAND2
X970 w202 w1077 w1079 NAND2
X971 operand_a operand_b w1080 AND2
X972 w202 w1077 w1081 XOR2
X973 w1080 w1081 w1082 NAND2
X974 w1079 w1082 w1083 NAND2
X975 w221 w222 w1084 XOR2
X976 w1083 w1084 w1085 NAND2
X977 operand_a operand_b w1086 AND2
X978 operand_a operand_b w1087 AND2
X979 w219 w1086 w1088 NAND2
X980 operand_a operand_b w1089 AND2
X981 w219 w1086 w1090 XOR2
X982 w1089 w1090 w1091 NAND2
X983 w1088 w1091 w1092 NAND2
X984 w1083 w1084 w1093 XOR2
X985 w1092 w1093 w1094 NAND2
X986 w1085 w1094 w1095 NAND2
X987 w224 w225 w1096 XOR2
X988 w1095 w1096 w1097 NAND2
X989 w419 w420 w1098 XOR2
X990 w1095 w1096 w1099 XOR2
X991 w1098 w1099 w1100 NAND2
X992 w1097 w1100 w1101 NAND2
X993 w270 w271 w1102 XOR2
X994 w1072 w1102 w1103 NAND2
X995 w1072 w1102 w1104 XOR2
X996 w1101 w1104 w1105 NAND2
X997 w1101 w1104 w1106 XOR2
X998 w1074 w1075 w1107 XOR2